.MODEL Ideal_npn2 NPN(
+  BF=400
+  RB=0.1
+  VTF=1e12
+  ITF=0.6
+  CJC=0
+  IS=1E-16
+  TR=1.25e-12
+  CJE=0
+  VAF=1.7
+  XTF=3
+  RE=.2
+  BR=6
+  RC=.3
+  TF=125e-12
+  EG=1.11
+  IKF=0.3
)